 
 ****************************
 *** Specfem3D MPI Mesher ***
 ****************************
 
 
 There are           96  MPI processes
 Processes are numbered from 0 to           95
 
 There are          128  elements along xi in each chunk
 There are          128  elements along eta in each chunk
 
 There are            4  slices along xi in each chunk
 There are            4  slices along eta in each chunk
 There is a total of           16  slices in each chunk
 There are            6  chunks in the global mesh
 There is a total of           96  slices in the global mesh
 
 NGLLX =            5
 NGLLY =            5
 NGLLZ =            5
 
 Shape functions defined by NGNOD =           27  control nodes
 Surface shape functions defined by NGNOD2D =            9  control nodes
 
 model: PREM_A3d_1Dcrust
   incorporating the oceans using equivalent load
   no ellipticity
   no surface topography
   no self-gravitation
   no rotation
   no attenuation
 
   incorporating 3-D lateral variations
   no heterogeneities in the mantle
   no crustal variations
   using unmodified 1D crustal model with two layers
   incorporating anisotropy
   no inner-core anisotropy
   no general mantle anisotropy
 
 Reference radius of the Earth used is    6371.00000000000       km
 
 Central cube is at a radius of    950.000000000000       km
 creating global slice addressing
 
 Spatial distribution of the slices
                       15   11    7    3
                       14   10    6    2
                       13    9    5    1
                       12    8    4    0
  
    47   43   39   35      31   27   23   19      79   75   71   67
    46   42   38   34      30   26   22   18      78   74   70   66
    45   41   37   33      29   25   21   17      77   73   69   65
    44   40   36   32      28   24   20   16      76   72   68   64
  
                       95   91   87   83
                       94   90   86   82
                       93   89   85   81
                       92   88   84   80
  
                       63   59   55   51
                       62   58   54   50
                       61   57   53   49
                       60   56   52   48
  
 
 
 
 *******************************************
 creating mesh in region            1
 this region is the crust and mantle
 *******************************************
 
 
 first pass
 
   ...allocating arrays 
 
   ...setting up layers 
 
   ...creating mesh elements 
   creating layer            1 out of           11
      9.1%    current clock (NOT elapsed) time is: 00h 02min 06sec
   creating layer            2 out of           11
     18.2%    current clock (NOT elapsed) time is: 00h 02min 06sec
   creating layer            3 out of           11
     27.3%    current clock (NOT elapsed) time is: 00h 02min 06sec
   creating layer            4 out of           11
     36.4%    current clock (NOT elapsed) time is: 00h 02min 06sec
   creating layer            5 out of           11
     45.5%    current clock (NOT elapsed) time is: 00h 02min 06sec
   creating layer            6 out of           11
     54.5%    current clock (NOT elapsed) time is: 00h 02min 06sec
   creating layer            7 out of           11
     63.6%    current clock (NOT elapsed) time is: 00h 02min 06sec
   creating layer            8 out of           11
     72.7%    current clock (NOT elapsed) time is: 00h 02min 06sec
   creating layer            9 out of           11
     81.8%    current clock (NOT elapsed) time is: 00h 02min 06sec
   creating layer           10 out of           11
     90.9%    current clock (NOT elapsed) time is: 00h 02min 06sec
   creating layer           11 out of           11
    100.0%    current clock (NOT elapsed) time is: 00h 02min 06sec
 
 
   ...creating global addressing
 
   ...creating MPI buffers
 
 second pass
 
   ...allocating arrays 
 
   ...setting up layers 
 
   ...creating mesh elements 
   creating layer            1 out of           11
      9.1%    current clock (NOT elapsed) time is: 00h 04min 13sec
   creating layer            2 out of           11
     18.2%    current clock (NOT elapsed) time is: 00h 04min 50sec
   creating layer            3 out of           11
     27.3%    current clock (NOT elapsed) time is: 00h 04min 54sec
   creating layer            4 out of           11
     36.4%    current clock (NOT elapsed) time is: 00h 05min 58sec
   creating layer            5 out of           11
     45.5%    current clock (NOT elapsed) time is: 00h 08min 07sec
   creating layer            6 out of           11
     54.5%    current clock (NOT elapsed) time is: 00h 08min 25sec
   creating layer            7 out of           11
     63.6%    current clock (NOT elapsed) time is: 00h 08min 44sec
   creating layer            8 out of           11
     72.7%    current clock (NOT elapsed) time is: 00h 09min 20sec
   creating layer            9 out of           11
     81.8%    current clock (NOT elapsed) time is: 00h 09min 57sec
   creating layer           10 out of           11
     90.9%    current clock (NOT elapsed) time is: 00h 09min 57sec
   creating layer           11 out of           11
    100.0%    current clock (NOT elapsed) time is: 00h 09min 57sec
 
 
   ...precomputing Jacobian
 
   ...creating chunk buffers
 
 ----- creating chunk buffers -----
 
 There are            4  slices along xi in each chunk
 There are            4  slices along eta in each chunk
 There is a total of           16  slices in each chunk
 There are            6  chunks
 There is a total of           96  slices in all the chunks
 
 There is a total of           48  messages to assemble faces between chunks
 
 Generating message            1  for faces out of           48
 Generating message            2  for faces out of           48
 Generating message            3  for faces out of           48
 Generating message            4  for faces out of           48
 Generating message            5  for faces out of           48
 Generating message            6  for faces out of           48
 Generating message            7  for faces out of           48
 Generating message            8  for faces out of           48
 Generating message            9  for faces out of           48
 Generating message           10  for faces out of           48
 Generating message           11  for faces out of           48
 Generating message           12  for faces out of           48
 Generating message           13  for faces out of           48
 Generating message           14  for faces out of           48
 Generating message           15  for faces out of           48
 Generating message           16  for faces out of           48
 Generating message           17  for faces out of           48
 Generating message           18  for faces out of           48
 Generating message           19  for faces out of           48
 Generating message           20  for faces out of           48
 Generating message           21  for faces out of           48
 Generating message           22  for faces out of           48
 Generating message           23  for faces out of           48
 Generating message           24  for faces out of           48
 Generating message           25  for faces out of           48
 Generating message           26  for faces out of           48
 Generating message           27  for faces out of           48
 Generating message           28  for faces out of           48
 Generating message           29  for faces out of           48
 Generating message           30  for faces out of           48
 Generating message           31  for faces out of           48
 Generating message           32  for faces out of           48
 Generating message           33  for faces out of           48
 Generating message           34  for faces out of           48
 Generating message           35  for faces out of           48
 Generating message           36  for faces out of           48
 Generating message           37  for faces out of           48
 Generating message           38  for faces out of           48
 Generating message           39  for faces out of           48
 Generating message           40  for faces out of           48
 Generating message           41  for faces out of           48
 Generating message           42  for faces out of           48
 Generating message           43  for faces out of           48
 Generating message           44  for faces out of           48
 Generating message           45  for faces out of           48
 Generating message           46  for faces out of           48
 Generating message           47  for faces out of           48
 Generating message           48  for faces out of           48
 
 all the messages for chunk faces have the right size
 
 Generating message            1  for corners out of            8
 Generating message            2  for corners out of            8
 Generating message            3  for corners out of            8
 Generating message            4  for corners out of            8
 Generating message            5  for corners out of            8
 Generating message            6  for corners out of            8
 Generating message            7  for corners out of            8
 Generating message            8  for corners out of            8
 
   ...preparing MPI interfaces
 
 crust/mantle region:
   #max of points in MPI buffers along xi npoin2D_xi =         7229
   #max of array elements transferred npoin2D_xi*NDIM =        21687
 
   #max of points in MPI buffers along eta npoin2D_eta =         7229
   #max of array elements transferred npoin2D_eta*NDIM =        21687
 
 crust mantle MPI:
   maximum interfaces:           8
   MPI addressing maximum interfaces:           8
   MPI addressing : all interfaces okay
 
   total MPI interface points :      2815176
   unique MPI interface points:      2734080
   maximum valence            :            3
   total unique MPI interface points:     2734080
 
 
   ...element inner/outer separation 
 
 for overlapping of communications with calculations:
 
 percentage of edge elements in crust/mantle    20.60185     %
 percentage of volume elements in crust/mantle    79.39815     %
 
 
   ...element mesh coloring 
   mesh coloring:  F
 
   ...creating mass matrix
     updates mass matrix with ocean load
 
   ...saving binary files
 
    calculated top area:    12.5663706138208     
             exact area:    12.5663706143592     
 calculated bottom area:    3.74932540735264     
             exact area:    3.74932546676467     
 
   ...saving AVS or DX mesh files
 
 *******************************************
 creating mesh in region            2
 this region is the outer core
 *******************************************
 
 
 first pass
 
   ...allocating arrays 
 
   ...setting up layers 
 
   ...creating mesh elements 
   creating layer            1 out of            2
     50.0%    current clock (NOT elapsed) time is: 00h 10min 01sec
   creating layer            2 out of            2
    100.0%    current clock (NOT elapsed) time is: 00h 10min 01sec
 
 
   ...creating global addressing
 
   ...creating MPI buffers
 
 second pass
 
   ...allocating arrays 
 
   ...setting up layers 
 
   ...creating mesh elements 
   creating layer            1 out of            2
     50.0%    current clock (NOT elapsed) time is: 00h 10min 01sec
   creating layer            2 out of            2
    100.0%    current clock (NOT elapsed) time is: 00h 10min 01sec
 
 
   ...precomputing Jacobian
 
   ...creating chunk buffers
 
 ----- creating chunk buffers -----
 
 There are            4  slices along xi in each chunk
 There are            4  slices along eta in each chunk
 There is a total of           16  slices in each chunk
 There are            6  chunks
 There is a total of           96  slices in all the chunks
 
 There is a total of           48  messages to assemble faces between chunks
 
 Generating message            1  for faces out of           48
 Generating message            2  for faces out of           48
 Generating message            3  for faces out of           48
 Generating message            4  for faces out of           48
 Generating message            5  for faces out of           48
 Generating message            6  for faces out of           48
 Generating message            7  for faces out of           48
 Generating message            8  for faces out of           48
 Generating message            9  for faces out of           48
 Generating message           10  for faces out of           48
 Generating message           11  for faces out of           48
 Generating message           12  for faces out of           48
 Generating message           13  for faces out of           48
 Generating message           14  for faces out of           48
 Generating message           15  for faces out of           48
 Generating message           16  for faces out of           48
 Generating message           17  for faces out of           48
 Generating message           18  for faces out of           48
 Generating message           19  for faces out of           48
 Generating message           20  for faces out of           48
 Generating message           21  for faces out of           48
 Generating message           22  for faces out of           48
 Generating message           23  for faces out of           48
 Generating message           24  for faces out of           48
 Generating message           25  for faces out of           48
 Generating message           26  for faces out of           48
 Generating message           27  for faces out of           48
 Generating message           28  for faces out of           48
 Generating message           29  for faces out of           48
 Generating message           30  for faces out of           48
 Generating message           31  for faces out of           48
 Generating message           32  for faces out of           48
 Generating message           33  for faces out of           48
 Generating message           34  for faces out of           48
 Generating message           35  for faces out of           48
 Generating message           36  for faces out of           48
 Generating message           37  for faces out of           48
 Generating message           38  for faces out of           48
 Generating message           39  for faces out of           48
 Generating message           40  for faces out of           48
 Generating message           41  for faces out of           48
 Generating message           42  for faces out of           48
 Generating message           43  for faces out of           48
 Generating message           44  for faces out of           48
 Generating message           45  for faces out of           48
 Generating message           46  for faces out of           48
 Generating message           47  for faces out of           48
 Generating message           48  for faces out of           48
 
 all the messages for chunk faces have the right size
 
 Generating message            1  for corners out of            8
 Generating message            2  for corners out of            8
 Generating message            3  for corners out of            8
 Generating message            4  for corners out of            8
 Generating message            5  for corners out of            8
 Generating message            6  for corners out of            8
 Generating message            7  for corners out of            8
 Generating message            8  for corners out of            8
 
   ...preparing MPI interfaces
 
 outer core region:
   #max of points in MPI buffers along xi npoin2D_xi =         1689
   #max of array elements transferred npoin2D_xi*NDIM =         5067
 
   #max of points in MPI buffers along eta npoin2D_eta =         1689
   #max of array elements transferred npoin2D_eta*NDIM =         5067
 
 outer core MPI:
   maximum interfaces:           8
   MPI addressing maximum interfaces:           8
   MPI addressing : all interfaces okay
 
   total MPI interface points :       671976
   unique MPI interface points:       623616
   maximum valence            :            3
   total assembled MPI interface points:      623616
 
 
   ...element inner/outer separation 
 percentage of edge elements in outer core    51.16279     %
 percentage of volume elements in outer core    48.83721     %
 
 
   ...element mesh coloring 
   mesh coloring:  F
 
   ...creating mass matrix
 
   ...saving binary files
 
    calculated top area:    3.74932540735264     
             exact area:    3.74932546676467     
 calculated bottom area:   0.461557565345860     
             exact area:   0.461557680026829     
 
   ...saving AVS or DX mesh files
 
 *******************************************
 creating mesh in region            3
 this region is the inner core
 *******************************************
 
 
 first pass
 
   ...allocating arrays 
 
   ...setting up layers 
 
   ...creating mesh elements 
   creating layer            1 out of            1
    100.0%    current clock (NOT elapsed) time is: 00h 10min 01sec
 
   creating central cube
 
   ...creating global addressing
 
   ...creating MPI buffers
 
 second pass
 
   ...allocating arrays 
 
   ...setting up layers 
 
   ...creating mesh elements 
   creating layer            1 out of            1
    100.0%    current clock (NOT elapsed) time is: 00h 10min 01sec
 
   creating central cube
 
   ...precomputing Jacobian
 
   ...creating chunk buffers
 
 ----- creating chunk buffers -----
 
 There are            4  slices along xi in each chunk
 There are            4  slices along eta in each chunk
 There is a total of           16  slices in each chunk
 There are            6  chunks
 There is a total of           96  slices in all the chunks
 
 There is a total of           48  messages to assemble faces between chunks
 
 Generating message            1  for faces out of           48
 Generating message            2  for faces out of           48
 Generating message            3  for faces out of           48
 Generating message            4  for faces out of           48
 Generating message            5  for faces out of           48
 Generating message            6  for faces out of           48
 Generating message            7  for faces out of           48
 Generating message            8  for faces out of           48
 Generating message            9  for faces out of           48
 Generating message           10  for faces out of           48
 Generating message           11  for faces out of           48
 Generating message           12  for faces out of           48
 Generating message           13  for faces out of           48
 Generating message           14  for faces out of           48
 Generating message           15  for faces out of           48
 Generating message           16  for faces out of           48
 Generating message           17  for faces out of           48
 Generating message           18  for faces out of           48
 Generating message           19  for faces out of           48
 Generating message           20  for faces out of           48
 Generating message           21  for faces out of           48
 Generating message           22  for faces out of           48
 Generating message           23  for faces out of           48
 Generating message           24  for faces out of           48
 Generating message           25  for faces out of           48
 Generating message           26  for faces out of           48
 Generating message           27  for faces out of           48
 Generating message           28  for faces out of           48
 Generating message           29  for faces out of           48
 Generating message           30  for faces out of           48
 Generating message           31  for faces out of           48
 Generating message           32  for faces out of           48
 Generating message           33  for faces out of           48
 Generating message           34  for faces out of           48
 Generating message           35  for faces out of           48
 Generating message           36  for faces out of           48
 Generating message           37  for faces out of           48
 Generating message           38  for faces out of           48
 Generating message           39  for faces out of           48
 Generating message           40  for faces out of           48
 Generating message           41  for faces out of           48
 Generating message           42  for faces out of           48
 Generating message           43  for faces out of           48
 Generating message           44  for faces out of           48
 Generating message           45  for faces out of           48
 Generating message           46  for faces out of           48
 Generating message           47  for faces out of           48
 Generating message           48  for faces out of           48
 
 all the messages for chunk faces have the right size
 
 Generating message            1  for corners out of            8
 Generating message            2  for corners out of            8
 Generating message            3  for corners out of            8
 Generating message            4  for corners out of            8
 Generating message            5  for corners out of            8
 Generating message            6  for corners out of            8
 Generating message            7  for corners out of            8
 Generating message            8  for corners out of            8
 
   ...preparing MPI interfaces
 
 inner core region:
   #max of points in MPI buffers along xi npoin2D_xi =         1241
   #max of array elements transferred npoin2D_xi*NDIM =         3723
 
   #max of points in MPI buffers along eta npoin2D_eta =         1241
   #max of array elements transferred npoin2D_eta*NDIM =         3723
 
 
 including central cube
 
 inner core MPI:
 inner core with central cube MPI:
   maximum interfaces:          20
   MPI addressing maximum interfaces:          20
   MPI addressing : all interfaces okay
 
   total MPI interface points :       167728
   unique MPI interface points:       142432
   maximum valence            :            7
   total assembled MPI interface points:      142432
 
 
   ...element inner/outer separation 
 percentage of edge elements in inner core    43.05556     %
 percentage of volume elements in inner core    56.94444     %
 
 
   ...element mesh coloring 
   mesh coloring:  F
 
   ...creating mass matrix
 
   ...saving binary files
 
    calculated top area:   0.461557565345860     
             exact area:   0.461557680026829     
 calculated bottom area:   0.211696387753306     
             more or less similar area (central cube):   0.177877903851686     
 
   ...saving AVS or DX mesh files
 
 calculated volume:    4.18879020346607     
      exact volume:    4.18879020478639     
 
 computed total Earth mass for this density model and mesh: 
  5.975536931670670E+024  kg
    (should be not too far from 5.97E+24 kg)
 
 average density for this density model and mesh:    5516.52398135959       kg/m
 3
    (should be not too far from 5514 kg/m3)
 
 Repartition of elements in regions:
 ----------------------------------
 
 total number of elements in each slice:         9616
 
  - crust and mantle:    89.85025      %
  - outer core:    7.154742      %
  - inner core:    2.995008      %
 
 for some mesh statistics, see comments in file OUTPUT_FILES/values_from_mesher.
 h
 
 Load balancing = 100 % by definition
 
 
 total number of time steps in the solver will be:        12700
 
 
 time-stepping of the solver will be:   0.190000000000000     
 
 using single precision for the calculations
 
 smallest and largest possible floating-point numbers are:   1.1754944E-38
  3.4028235E+38
 
 
 Elapsed time for mesh generation and buffer creation in seconds = 
   476.741122961044     
 Elapsed time for mesh generation and buffer creation in hh:mm:ss =    0 h 07 m 56 s
 
 End of mesh generation
 
